LAMMPS (21 Nov 2023)
units nano
boundary p p p
atom_style bond

variable index equal 9
variable seed equal v_index*100+123
variable eps equal 5

read_data initials/Sticker58_Chain450_NP50_Particle50_Rep9.initial
Reading data file ...
  orthogonal box = (-50 -12.5 -12.5) to (50 12.5 12.5)
  reading atoms ...
  25450 atoms
  reading velocities ...
  25450 velocities
  scanning bonds ...
  reading bonds ...
  25350 bonds
Finding 1-2 1-3 1-4 neighbors ...
     3 = max # of 1-2 neighbors
     3 = max # of 1-3 neighbors
     6 = max # of 1-4 neighbors
     8 = max # of special neighbors

pair_style hybrid lj/cut 3.3674 soft 0.67348 zero 0.6 table linear 10000
pair_coeff * * zero 0.6
pair_coeff 1 1 soft 12.42 0.67348
pair_coeff 2 2 soft 12.42 0.67348
pair_coeff 3 3 soft 12.42 0.67348
pair_coeff 2 3 soft 0 0.3
pair_coeff 1 4 lj/cut 4.14 1.8 2.0204
pair_coeff 4 4 lj/cut 4.14 3 3.3674
pair_coeff 2 4 table tables3.dat SIG30EPS5
pair_coeff 3 4 table tables3.dat SIG30EPS5
pair_modify shift yes
special_bonds lj/coul 0.0 1.0 1.0
Finding 1-2 1-3 1-4 neighbors ...
     3 = max # of 1-2 neighbors
     8 = max # of special neighbors

bond_style harmonic
bond_coeff 1 2867.036 0.38
bond_coeff 2 4600 0.3

neighbor 1.6326 multi

comm_style tiled
neigh_modify every 1 delay 0

region wallx block -30 30 -30 30 -30 30 open 3 open 4 open 5 open 6

group polymer type 1 2 3
25400 atoms in group polymer
group client_coms type 4
50 atoms in group client_coms

fix 1 all nve
fix 2 all langevin 300 300 1 1023 zero yes
fix 4 polymer wall/region wallx lj126 4.14 0.6 0.67348
fix 5 all balance 1000 1.1 rcb

thermo 10000000
timestep 0.01

run 1000000

CITE-CITE-CITE-CITE-CITE-CITE-CITE-CITE-CITE-CITE-CITE-CITE-CITE

Your simulation uses code contributions which should be cited:

- neighbor multi command: doi:10.1016/j.cpc.2008.03.005, doi:10.1007/s40571-020-00361-2

@Article{Intveld08,
 author =  {in 't Veld, P. J. and S. J.~Plimpton and G. S. Grest},
 title =   {Accurate and Efficient Methods for Modeling Colloidal
            Mixtures in an Explicit Solvent using Molecular Dynamics},
 journal = {Comput.\ Phys.\ Commut.},
 year =    2008,
 volume =  179,
 pages =   {320--329}
}

@article{Shire2020,
 author = {Shire, Tom and Hanley, Kevin J. and Stratford, Kevin},
 title = {{DEM} Simulations of Polydisperse Media: Efficient Contact
          Detection Applied to Investigate the Quasi-Static Limit},
 journal = {Computational Particle Mechanics},
 year = {2020}
@article{Monti2022,
 author = {Monti, Joseph M. and Clemmer, Joel T. and Srivastava,
           Ishan and Silbert, Leonardo E. and Grest, Gary S.
           and Lechman, Jeremy B.},
 title = {Large-scale frictionless jamming with power-law particle
          size distributions},
 journal = {Phys. Rev. E},
 volume = {106}
 issue = {3}
 year = {2022}
}

CITE-CITE-CITE-CITE-CITE-CITE-CITE-CITE-CITE-CITE-CITE-CITE-CITE

Generated 0 of 6 mixed pair_coeff terms from geometric mixing rule
Step          Temp          E_pair         E_mol          TotEng         Press          Volume
0   0              811119         0.0020777482   811119         12.078776      62500
Loop time of 294.486 on 48 procs for 1000000 steps with 25450 atoms

pair_style hybrid lj/cut 3.3674 soft 0.67348 zero 0.6 table linear 10000
pair_coeff * * zero 0.6
pair_coeff 1 1 soft 207 0.67348
pair_coeff 2 2 soft 207 0.67348
pair_coeff 3 3 soft 207 0.67348
pair_coeff 2 3 soft 0 0.3
pair_coeff 1 4 lj/cut 4.14 1.8 2.0204
pair_coeff 4 4 lj/cut 4.14 3 3.3674
pair_coeff 2 4 table tables3.dat SIG30EPS5
pair_coeff 3 4 table tables3.dat SIG30EPS5
pair_modify shift yes
special_bonds lj/coul 0.0 1.0 1.0

run 1000000
Generated 0 of 6 mixed pair_coeff terms from geometric mixing rule
Step          Temp          E_pair         E_mol          TotEng         Press          Volume
1000000   302.18694      314294.3       56838.768      530398.45      13.065068      62500
Loop time of 276.091 on 48 procs for 1000000 steps with 25450 atoms

pair_s
pair_style hybrid lj/cut 3.3674 soft 0.67348 zero 0.6 table linear 10000
pair_coeff * * zero 0.6
pair_coeff 1 1 lj/cut 4.14 0.6 0.67348
pair_coeff 2 2 lj/cut 4.14 0.6 0.67348
pair_coeff 3 3 lj/cut 4.14 0.6 0.67348
pair_coeff 2 3 soft 0 0.3
pair_coeff 1 4 lj/cut 4.14 1.8 2.0204
pair_coeff 4 4 lj/cut 4.14 3 3.3674
pair_coeff 2 4 table tables3.dat SIG30EPS4
pair_coeff 3 4 table tables3.dat SIG30EPS4
pair_modify shift yes
special_bonds lj/coul 0.0 1.0 1.0

variable A equal "ramp(0,-37.26)"
fix 6 all adapt 1 pair soft a 2 3 v_A

run 1000000
Generated 0 of 6 mixed pair_coeff terms from geometric mixing rule
Step          Temp          E_pair         E_mol          TotEng         Press          Volume
2000000   300.37398      3024.6039      60406.956      221741.44     -1.4322535      62500
Loop time of 283.166 on 48 procs for 1000000 steps with 25450 atoms

Dangerous b
u
unfix 6
unfix 6

pair_coeff 2 3 soft -37.26 0.3
run 1000000
Generated 0 of 6 mixed pair_coeff terms from geometric mixing rule
Step          Temp          E_pair         E_mol          TotEng         Press          Volume
3000000   302.65101     -24406.819      59079.296      194182.45     -0.10850392     62500
Loop time of 289.382 on 48 procs for 1000000 steps with 25450 atoms

Dangerous
unfix
unfix 4

# Equilibration

run 50000000
Generated 0 of 6 mixed pair_coeff terms from geometric mixing rule
Step          Temp          E_pair         E_mol          TotEng         Press          Volume
4000000   301.31423     -46565.981      59932.711      172172.16     -0.025633076    62500
Loop time of 15380 on 48 procs for 50000000 steps with 25450 atoms

#wri

reset_timestep 0

compute         myChunk2 client_coms chunk/atom bin/1d x lower 0.02 units reduced
fix             densityRegions2 client_coms ave/chunk 1000 49000 49500000 myChunk2 density/number file Out_profile/density_clients_eps2_rep3.dat

compute         myChunk3 polymer chunk/atom bin/1d x lower 0.02 units reduced
fix             densityRegions3 polymer ave/chunk 1000 49000 49500000 myChunk3 density/number file Out_profile/density_pols_eps2_rep3.dat

dump 5 all xyz 2000000 OutC/FULL_trajectory_clients_eps2_rep3.xyz
run 250000000
Generated 0 of 6 mixed pair_coeff terms from geometric mixing rule
Step          Temp          E_pair         E_mol          TotEng         Press          Volume
0   300.44115     -47802.534      60425.595      170968.34     -0.078718898    62500
Averages over the last 13 of 26 rows, steps 130000000 to 250000000:
Temp E_pair E_mol TotEng Press Volume
299.572 -48800.9 59622.3 168709 -0.0215811 62500
Loop time of 78684.4 on 48 procs for 250000000 steps with 25450 atoms

:30
53:01

4
0
