LAMMPS (21 Nov 2023)
units nano
boundary p p p
atom_style bond

variable index equal 1
variable seed equal v_index*100
variable A equal 9.4
variable A_kcal equal v_A*4.14
variable temperature equal 318

read_data Sticker10_Chain10_NP50_Particle50.initial
Reading data file ...
  orthogonal box = (-50 -12.5 -12.5) to (50 12.5 12.5)
  reading atoms ...
  1050 atoms
  reading velocities ...
  1050 velocities
  scanning bonds ...
  reading bonds ...
  950 bonds
Finding 1-2 1-3 1-4 neighbors ...
     3 = max # of 1-2 neighbors
     4 = max # of 1-3 neighbors
     8 = max # of 1-4 neighbors
    11 = max # of special neighbors

pair_style hybrid lj/cut 3.3674 soft 0.3 zero 2
pair_coeff * * zero 2
pair_coeff 1 1 lj/cut 4.14 2 2.2449
pair_coeff 2 2 lj/cut 4.14 0.6 0.67348
pair_coeff 3 3 lj/cut 4.14 0.6 0.67348
pair_coeff 2 3 soft 0 0.3
pair_coeff 1 4 lj/cut 2.613 2.5 2.8062
pair_coeff 4 4 lj/cut 2.613 3 3.3674
pair_modify shift yes
special_bonds lj/coul 0.0 1.0 1.0
Finding 1-2 1-3 1-4 neighbors ...
     3 = max # of 1-2 neighbors
    11 = max # of special neighbors

bond_style hybrid harmonic fene/expand
bond_coeff 1 fene/expand 0.53549 14.03 0 0 3.0707
bond_coeff 2 harmonic 414 1

neighbor 3.0 multi

region wallx block -30 30 -30 30 -30 30 open 3 open 4 open 5 open 6

group polymer type 1 2 3
1000 atoms in group polymer
group particle type 4
50 atoms in group particle

comm_style tiled
neigh_modify every 1 delay 0 check yes
comm_modify cutoff 20.0

fix 1 all nve
fix 2 all langevin 318 318 1 100
fix 4 polymer wall/region wallx lj126 4.14 2 2.2449
fix 5 all balance 1000 1.1 rcb

thermo 10000000
timestep 0.01

run 10000000

CITE-CITE-CITE-CITE-CITE-CITE-CITE-CITE-CITE-CITE-CITE-CITE-CITE

Your simulation uses code contributions which should be cited:

- neighbor multi command: doi:10.1016/j.cpc.2008.03.005, doi:10.1007/s40571-020-00361-2

@Article{Intveld08,
 author =  {in 't Veld, P. J. and S. J.~Plimpton and G. S. Grest},
 title =   {Accurate and Efficient Methods for Modeling Colloidal
            Mixtures in an Explicit Solvent using Molecular Dynamics},
 journal = {Comput.\ Phys.\ Commut.},
 year =    2008,
 volume =  179,
 pages =   {320--329}
}

@article{Shire2020,
 author = {Shire, Tom and Hanley, Kevin J. and Stratford, Kevin},
 title = {{DEM} Simulations of Polydisperse Media: Efficient Contact
          Detection Applied to Investigate the Quasi-Static Limit},
 journal = {Computational Particle Mechanics},
 year = {2020}
@article{Monti2022,
 author = {Monti, Joseph M. and Clemmer, Joel T. and Srivastava,
           Ishan and Silbert, Leonardo E. and Grest, Gary S.
           and Lechman, Jeremy B.},
 title = {Large-scale frictionless jamming with power-law particle
          size distributions},
 journal = {Phys. Rev. E},
 volume = {106}
 issue = {3}
 year = {2022}
}

CITE-CITE-CITE-CITE-CITE-CITE-CITE-CITE-CITE-CITE-CITE-CITE-CITE

Generated 0 of 6 mixed pair_coeff terms from geometric mixing rule
Step          Temp          E_pair         E_mol          TotEng         Press          Volume
0   0              13.065         104.2798       117.3448      -0.0031259878   62500
variable A equal "ramp(0,-38.916)"
fix 3 all adapt 1 pair soft a 2 3 v_A

run 40000000
Generated 0 of 6 mixed pair_coeff terms from geometric mixing rule
Step          Temp          E_pair         E_mol          TotEng         Press          Volume
10000000   308.34731      84.64505       2830.4533      9613.7999      0.0086768987   62500
variable A equal "ramp(0,-38.916)"
fix 3 all adapt 1 pair soft a 2 3 v_A

run 40000000
Generated 0 of 6 mixed pair_coeff terms from geometric mixing rule
Step          Temp          E_pair         E_mol          TotEng         Press          Volume
10000000   329.69188      96.565586      2907.4628      10166.431      0.020194708    62500
variable A equal "ramp(0,-38.916)"
fix 3 all adapt 1 pair soft a 2 3 v_A

run 40000000
Generated 0 of 6 mixed pair_coeff terms from geometric mixing rule
Step          Temp          E_pair         E_mol          TotEng         Press          Volume
10000000   314.9168       82.638996      2503.1694      9427.2291      0.022689511    62500
Loop time of 5453.43 on 48 procs for 40000000 steps with 1050 atoms

unfix 3
pair_coeff 2 3 soft -38.916 0.3
run 10000000
Generated 0 of 6 mixed pair_coeff terms from geometric mixing rule
Step          Temp          E_pair         E_mol          TotEng         Press          Volume
50000000   313.38227     -11793.518      2862.2972     -2123.1371      0.015530061    62500
Loop time of 1439.27 on 48 procs for 10000000 steps with 1050 atoms

u
unfix 4
fix fixCOM polymer recenter INIT INIT INIT
run 50000000
Generated 0 of 6 mixed pair_coeff terms from geometric mixing rule
Step          Temp          E_pair         E_mol          TotEng         Press          Volume
60000000   317.61881     -12124.344      2965.8563     -2258.3671      0.018359005    62500
Loop time of 6791.88 on 48 procs for 50000000 steps with 1050 atoms

d
d
dump 4 all xyz 50000 Out_318/pols_T318_rep4.xyz
run 200000000
Generated 0 of 6 mixed pair_coeff terms from geometric mixing rule
Step          Temp          E_pair         E_mol          TotEng         Press          Volume
110000000   319.74361     -12232.68       2853.3753     -2433.0237      0.015429914    62500
Averages over the last 11 of 21 rows, steps 210000000 to 310000000:
Temp E_pair E_mol TotEng Press Volume
316.795 -11948.1 2946.88 -2118.97 0.00320049 62500
Loop time of 25530.9 on 48 procs for 200000000 steps with 1050 atoms

:04:38
:09:43
