LAMMPS (21 Nov 2023)
units nano
boundary p p p
atom_style bond

variable index equal 3
variable seed equal v_index*100
variable temperature equal 318

read_restart Out3/Sticker58_Chain450_NP50_Particle50_A9_Rep3_3.restart
Reading restart file ...
  restart file = 21 Nov 2023, LAMMPS = 21 Nov 2023
  restoring atom style bond from restart
  orthogonal box = (-50 -12.5 -12.5) to (50 12.5 12.5)
  restoring pair style hybrid from restart
  restoring bond style harmonic from restart
  25450 atoms
  25350 bonds
Finding 1-2 1-3 1-4 neighbors ...
     3 = max # of 1-2 neighbors
     8 = max # of special neighbors
  read_restart CPU = 0.066 seconds

pair_style hybrid lj/cut 3.3674 soft 0.67348 zero 0.6
pair_coeff * * zero 0.6
pair_coeff 1 1 lj/cut 4.14 0.6 0.67348
pair_coeff 2 2 lj/cut 4.14 0.6 0.67348
pair_coeff 3 3 lj/cut 4.14 0.6 0.67348
pair_coeff 2 3 soft -37.26 0.3
pair_coeff 1 4 lj/cut 2.6130024 1.8 2.0204 #0.63116 kBT to match the B2
pair_coeff 4 4 lj/cut 2.6130024 3 3.3674
pair_modify shift yes
special_bonds lj/coul 0.0 1.0 1.0

bond_style harmonic
bond_coeff 1 2867.036 0.38
bond_coeff 2 4600 0.3

neighbor 1.6326 multi

comm_style tiled
neigh_modify every 1 delay 0

group polymer type 1 2 3
25400 atoms in group polymer
group particle type 4
50 atoms in group particle

fix 1 all nve
fix 2 all langevin 318 318 1 300 zero yes
fix 5 all balance 1000 1.05 rcb

thermo 10000000
timestep 0.01

# Equlibration
run 50000000

CITE-CITE-CITE-CITE-CITE-CITE-CITE-CITE-CITE-CITE-CITE-CITE-CITE

Your simulation uses code contributions which should be cited:

- neighbor multi command: doi:10.1016/j.cpc.2008.03.005, doi:10.1007/s40571-020-00361-2

@Article{Intveld08,
 author =  {in 't Veld, P. J. and S. J.~Plimpton and G. S. Grest},
 title =   {Accurate and Efficient Methods for Modeling Colloidal
            Mixtures in an Explicit Solvent using Molecular Dynamics},
 journal = {Comput.\ Phys.\ Commut.},
 year =    2008,
 volume =  179,
 pages =   {320--329}
}

@article{Shire2020,
 author = {Shire, Tom and Hanley, Kevin J. and Stratford, Kevin},
 title = {{DEM} Simulations of Polydisperse Media: Efficient Contact
          Detection Applied to Investigate the Quasi-Static Limit},
 journal = {Computational Particle Mechanics},
 year = {2020}
@article{Monti2022,
 author = {Monti, Joseph M. and Clemmer, Joel T. and Srivastava,
           Ishan and Silbert, Leonardo E. and Grest, Gary S.
           and Lechman, Jeremy B.},
 title = {Large-scale frictionless jamming with power-law particle
          size distributions},
 journal = {Phys. Rev. E},
 volume = {106}
 issue = {3}
 year = {2022}
}

CITE-CITE-CITE-CITE-CITE-CITE-CITE-CITE-CITE-CITE-CITE-CITE-CITE

Generated 0 of 6 mixed pair_coeff terms from geometric mixing rule
Step          Temp          E_pair         E_mol          TotEng         Press          Volume
1061000000   298.90855     -49383.986      59802.134      167955.68      0.035305027    62500
Loop time of 12961.1 on 48 procs for 50000000 steps with 25450 atoms

d
dump 4 all xyz 100000 Out_318/pols_T318_rep3.xyz

run 100000000
Generated 0 of 6 mixed pair_coeff terms from geometric mixing rule
Step          Temp          E_pair         E_mol          TotEng         Press          Volume
1111000000   319.03728     -30050.824      64329.064      202424.47     -0.10004947     62500
Averages over the last 6 of 12 rows, steps 1170000000 to 1211000000:
Temp E_pair E_mol TotEng Press Volume
318.675 -30467.9 63476.6 200964 -0.0720753 62500
Loop time of 24797.9 on 48 procs for 100000000 steps with 25450 atoms
